@<TRIPOS>MOLECULE
BNZ
   12    12     1     0     0
SMALL
bcc


@<TRIPOS>ATOM
      1 C1         -32.9690     6.1960     2.8770 ca         1 BNZ      -0.130000
      2 C2         -32.9450     7.0460     3.9730 ca         1 BNZ      -0.130000
      3 C3         -33.7190     6.7980     5.1130 ca         1 BNZ      -0.130000
      4 C4         -34.5400     5.6800     5.1430 ca         1 BNZ      -0.130000
      5 C5         -34.5450     4.8250     4.0440 ca         1 BNZ      -0.130000
      6 C6         -33.7870     5.0690     2.9150 ca         1 BNZ      -0.130000
      7 H1         -32.3610     6.3980     1.9950 ha         1 BNZ       0.130000
      8 H2         -32.3050     7.9280     3.9430 ha         1 BNZ       0.130000
      9 H3         -33.6940     7.4700     5.9710 ha         1 BNZ       0.130000
     10 H4         -35.1530     5.4810     6.0220 ha         1 BNZ       0.130000
     11 H5         -35.1790     3.9390     4.0710 ha         1 BNZ       0.130000
     12 H6         -33.8150     4.3930     2.0600 ha         1 BNZ       0.130000
@<TRIPOS>BOND
     1     1     2 ar  
     2     2     3 ar  
     3     3     4 ar  
     4     4     5 ar  
     5     5     6 ar  
     6     6     1 ar  
     7     1     7 1   
     8     2     8 1   
     9     3     9 1   
    10     4    10 1   
    11     5    11 1   
    12     6    12 1   
@<TRIPOS>SUBSTRUCTURE
     1 BNZ         1 TEMP              0 ****  ****    0 ROOT
